data/figure_cases/case141.m
function mpc = case141
%CASE141

%% MATPOWER Case Format : Version 2
mpc.version = '2';

%%-----  Power Flow Data  -----%%
%% system MVA base
mpc.baseMVA = 10;

%% bus data
%	bus_i	type	Pd	Qd	Gs	Bs	area	Vm	Va	baseKV	zone	Vmax	Vmin
mpc.bus = [
	1	3	0	0	0	0	1	1	0	12.47	1	1	1;
	2	1	0	0	0	0	1	1	0	12.47	1	1.1	0.9;
	3	1	0	0	0	0	1	1	0	12.47	1	1.1	0.9;
	4	1	0	0	0	0	1	1	0	12.47	1	1.1	0.9;
	5	1	0	0	0	0	1	1	0	12.47	1	1.1	0.9;
	6	1	0	0	0	0	1	1	0	12.47	1	1.1	0.9;
	7	1	0	0	0	0	1	1	0	12.47	1	1.1	0.9;
	8	1	0.06375	0.0395087016	0	0	1	1	0	12.47	1	1.1	0.9;
	9	1	0.0085	0.00526782688	0	0	1	1	0	12.47	1	1.1	0.9;
	10	1	0	0	0	0	1	1	0	12.47	1	1.1	0.9;
	11	1	0	0	0	0	1	1	0	12.47	1	1.1	0.9;
	12	1	0.02125	0.0131695672	0	0	1	1	0	12.47	1	1.1	0.9;
	13	1	0.06375	0.0395087016	0	0	1	1	0	12.47	1	1.1	0.9;
	14	1	0	0	0	0	1	1	0	12.47	1	1.1	0.9;
	15	1	0	0	0	0	1	1	0	12.47	1	1.1	0.9;
	16	1	0	0	0	0	1	1	0	12.47	1	1.1	0.9;
	17	1	0.1275	0.0790174031	0	0	1	1	0	12.47	1	1.1	0.9;
	18	1	0	0	0	0	1	1	0	12.47	1	1.1	0.9;
	19	1	0	0	0	0	1	1	0	12.47	1	1.1	0.9;
	20	1	0.06375	0.0395087016	0	0	1	1	0	12.47	1	1.1	0.9;
	21	1	0.06375	0.0395087016	0	0	1	1	0	12.47	1	1.1	0.9;
	22	1	0	0	0	0	1	1	0	12.47	1	1.1	0.9;
	23	1	0.06375	0.0395087016	0	0	1	1	0	12.47	1	1.1	0.9;
	24	1	0	0	0	0	1	1	0	12.47	1	1.1	0.9;
	25	1	0	0	0	0	1	1	0	12.47	1	1.1	0.9;
	26	1	0.1275	0.0790174031	0	0	1	1	0	12.47	1	1.1	0.9;
	27	1	0.06375	0.0395087016	0	0	1	1	0	12.47	1	1.1	0.9;
	28	1	0	0	0	0	1	1	0	12.47	1	1.1	0.9;
	29	1	0.06375	0.0395087016	0	0	1	1	0	12.47	1	1.1	0.9;
	30	1	0	0	0	0	1	1	0	12.47	1	1.1	0.9;
	31	1	0	0	0	0	1	1	0	12.47	1	1.1	0.9;
	32	1	0.1275	0.0790174031	0	0	1	1	0	12.47	1	1.1	0.9;
	33	1	0	0	0	0	1	1	0	12.47	1	1.1	0.9;
	34	1	0.1275	0.0790174031	0	0	1	1	0	12.47	1	1.1	0.9;
	35	1	0.255	0.158034806	0	0	1	1	0	12.47	1	1.1	0.9;
	36	1	0.1275	0.0790174031	0	0	1	1	0	12.47	1	1.1	0.9;
	37	1	0.0425	0.0263391344	0	0	1	1	0	12.47	1	1.1	0.9;
	38	1	0	0	0	0	1	1	0	12.47	1	1.1	0.9;
	39	1	0.017	0.0105356538	0	0	1	1	0	12.47	1	1.1	0.9;
	40	1	0	0	0	0	1	1	0	12.47	1	1.1	0.9;
	41	1	0.06375	0.0395087016	0	0	1	1	0	12.47	1	1.1	0.9;
	42	1	0	0	0	0	1	1	0	12.47	1	1.1	0.9;
	43	1	0	0	0	0	1	1	0	12.47	1	1.1	0.9;
	44	1	0.0425	0.0263391344	0	0	1	1	0	12.47	1	1.1	0.9;
	45	1	0	0	0	0	1	1	0	12.47	1	1.1	0.9;
	46	1	0	0	0	0	1	1	0	12.47	1	1.1	0.9;
	47	1	0	0	0	0	1	1	0	12.47	1	1.1	0.9;
	48	1	0.10625	0.065847836	0	0	1	1	0	12.47	1	1.1	0.9;
	49	1	0.1275	0.0790174031	0	0	1	1	0	12.47	1	1.1	0.9;
	50	1	0	0	0	0	1	1	0	12.47	1	1.1	0.9;
	51	1	0.10625	0.065847836	0	0	1	1	0	12.47	1	1.1	0.9;
	52	1	0.06375	0.0395087016	0	0	1	1	0	12.47	1	1.1	0.9;
	53	1	0.085	0.0526782688	0	0	1	1	0	12.47	1	1.1	0.9;
	54	1	0	0	0	0	1	1	0	12.47	1	1.1	0.9;
	55	1	0	0	0	0	1	1	0	12.47	1	1.1	0.9;
	56	1	0.02125	0.0131695672	0	0	1	1	0	12.47	1	1.1	0.9;
	57	1	0	0	0	0	1	1	0	12.47	1	1.1	0.9;
	58	1	0.255	0.158034806	0	0	1	1	0	12.47	1	1.1	0.9;
	59	1	0.1275	0.0790174031	0	0	1	1	0	12.47	1	1.1	0.9;
	60	1	0	0	0	0	1	1	0	12.47	1	1.1	0.9;
	61	1	0.255	0.158034806	0	0	1	1	0	12.47	1	1.1	0.9;
	62	1	0.17	0.105356538	0	0	1	1	0	12.47	1	1.1	0.9;
	63	1	0	0	0	0	1	1	0	12.47	1	1.1	0.9;
	64	1	0.255	0.158034806	0	0	1	1	0	12.47	1	1.1	0.9;
	65	1	0.1275	0.0790174031	0	0	1	1	0	12.47	1	1.1	0.9;
	66	1	0.19125	0.118526105	0	0	1	1	0	12.47	1	1.1	0.9;
	67	1	0.0425	0.0263391344	0	0	1	1	0	12.47	1	1.1	0.9;
	68	1	0.085	0.0526782688	0	0	1	1	0	12.47	1	1.1	0.9;
	69	1	0.255	0.158034806	0	0	1	1	0	12.47	1	1.1	0.9;
	70	1	0	0	0	0	1	1	0	12.47	1	1.1	0.9;
	71	1	0.255	0.158034806	0	0	1	1	0	12.47	1	1.1	0.9;
	72	1	0.1275	0.0790174031	0	0	1	1	0	12.47	1	1.1	0.9;
	73	1	0.255	0.158034806	0	0	1	1	0	12.47	1	1.1	0.9;
	74	1	0.255	0.158034806	0	0	1	1	0	12.47	1	1.1	0.9;
	75	1	0.03825	0.0237052209	0	0	1	1	0	12.47	1	1.1	0.9;
	76	1	0.06375	0.0395087016	0	0	1	1	0	12.47	1	1.1	0.9;
	77	1	0.1275	0.0790174031	0	0	1	1	0	12.47	1	1.1	0.9;
	78	1	0	0	0	0	1	1	0	12.47	1	1.1	0.9;
	79	1	0.427125	0.264708301	0	0	1	1	0	12.47	1	1.1	0.9;
	80	1	0.6375	0.395087016	0	0	1	1	0	12.47	1	1.1	0.9;
	81	1	0	0	0	0	1	1	0	12.47	1	1.1	0.9;
	82	1	0.1275	0.0790174031	0	0	1	1	0	12.47	1	1.1	0.9;
	83	1	0.06375	0.0395087016	0	0	1	1	0	12.47	1	1.1	0.9;
	84	1	0.19125	0.118526105	0	0	1	1	0	12.47	1	1.1	0.9;
	85	1	0	0	0	0	1	1	0	12.47	1	1.1	0.9;
	86	1	0.425	0.263391344	0	0	1	1	0	12.47	1	1.1	0.9;
	87	1	0.1275	0.0790174031	0	0	1	1	0	12.47	1	1.1	0.9;
	88	1	0.06375	0.0395087016	0	0	1	1	0	12.47	1	1.1	0.9;
	89	1	0.05525	0.0342408747	0	0	1	1	0	12.47	1	1.1	0.9;
	90	1	0	0	0	0	1	1	0	12.47	1	1.1	0.9;
	91	1	0	0	0	0	1	1	0	12.47	1	1.1	0.9;
	92	1	0	0	0	0	1	1	0	12.47	1	1.1	0.9;
	93	1	0	0	0	0	1	1	0	12.47	1	1.1	0.9;
	94	1	0.0935	0.0579460956	0	0	1	1	0	12.47	1	1.1	0.9;
	95	1	0	0	0	0	1	1	0	12.47	1	1.1	0.9;
	96	1	0.1275	0.0790174031	0	0	1	1	0	12.47	1	1.1	0.9;
	97	1	0	0	0	0	1	1	0	12.47	1	1.1	0.9;
	98	1	0.255	0.158034806	0	0	1	1	0	12.47	1	1.1	0.9;
	99	1	0	0	0	0	1	1	0	12.47	1	1.1	0.9;
	100	1	0.255	0.158034806	0	0	1	1	0	12.47	1	1.1	0.9;
	101	1	0.01275	0.00790174031	0	0	1	1	0	12.47	1	1.1	0.9;
	102	1	0	0	0	0	1	1	0	12.47	1	1.1	0.9;
	103	1	0.10625	0.065847836	0	0	1	1	0	12.47	1	1.1	0.9;
	104	1	0	0	0	0	1	1	0	12.47	1	1.1	0.9;
	105	1	0.255	0.158034806	0	0	1	1	0	12.47	1	1.1	0.9;
	106	1	0.1275	0.0790174031	0	0	1	1	0	12.47	1	1.1	0.9;
	107	1	0.427125	0.264708301	0	0	1	1	0	12.47	1	1.1	0.9;
	108	1	0	0	0	0	1	1	0	12.47	1	1.1	0.9;
	109	1	0.6375	0.395087016	0	0	1	1	0	12.47	1	1.1	0.9;
	110	1	0.6375	0.395087016	0	0	1	1	0	12.47	1	1.1	0.9;
	111	1	0.02125	0.0131695672	0	0	1	1	0	12.47	1	1.1	0.9;
	112	1	0.425	0.263391344	0	0	1	1	0	12.47	1	1.1	0.9;
	113	1	0.06375	0.0395087016	0	0	1	1	0	12.47	1	1.1	0.9;
	114	1	0	0	0	0	1	1	0	12.47	1	1.1	0.9;
	115	1	0	0	0	0	1	1	0	12.47	1	1.1	0.9;
	116	1	0.255	0.158034806	0	0	1	1	0	12.47	1	1.1	0.9;
	117	1	0.05525	0.0342408747	0	0	1	1	0	12.47	1	1.1	0.9;
	118	1	0	0	0	0	1	1	0	12.47	1	1.1	0.9;
	119	1	0.0935	0.0579460956	0	0	1	1	0	12.47	1	1.1	0.9;
	120	1	0	0	0	0	1	1	0	12.47	1	1.1	0.9;
	121	1	0	0	0	0	1	1	0	12.47	1	1.1	0.9;
	122	1	0	0	0	0	1	1	0	12.47	1	1.1	0.9;
	123	1	0.085	0.0526782688	0	0	1	1	0	12.47	1	1.1	0.9;
	124	1	0.10625	0.065847836	0	0	1	1	0	12.47	1	1.1	0.9;
	125	1	0	0	0	0	1	1	0	12.47	1	1.1	0.9;
	126	1	0	0	0	0	1	1	0	12.47	1	1.1	0.9;
	127	1	0.06375	0.0395087016	0	0	1	1	0	12.47	1	1.1	0.9;
	128	1	0.06375	0.0395087016	0	0	1	1	0	12.47	1	1.1	0.9;
	129	1	0.0935	0.0579460956	0	0	1	1	0	12.47	1	1.1	0.9;
	130	1	0.095625	0.0592630524	0	0	1	1	0	12.47	1	1.1	0.9;
	131	1	0	0	0	0	1	1	0	12.47	1	1.1	0.9;
	132	1	0.06375	0.0395087016	0	0	1	1	0	12.47	1	1.1	0.9;
	133	1	0.03825	0.0237052209	0	0	1	1	0	12.47	1	1.1	0.9;
	134	1	0.02975	0.0184373941	0	0	1	1	0	12.47	1	1.1	0.9;
	135	1	0.02125	0.0131695672	0	0	1	1	0	12.47	1	1.1	0.9;
	136	1	0.06375	0.0395087016	0	0	1	1	0	12.47	1	1.1	0.9;
	137	1	0.04675	0.0289730478	0	0	1	1	0	12.47	1	1.1	0.9;
	138	1	0.0425	0.0263391344	0	0	1	1	0	12.47	1	1.1	0.9;
	139	1	0.0425	0.0263391344	0	0	1	1	0	12.47	1	1.1	0.9;
	140	1	0.1275	0.0790174031	0	0	1	1	0	12.47	1	1.1	0.9;
	141	1	0.06375	0.0395087016	0	0	1	1	0	12.47	1	1.1	0.9;
];

%% generator data
%	bus	Pg	Qg	Qmax	Qmin	Vg	mBase	status	Pmax	Pmin	Pc1	Pc2	Qc1min	Qc1max	Qc2min	Qc2max	ramp_agc	ramp_10	ramp_30	ramp_q	apf
mpc.gen = [
	1	0	0	100	-100	1	100	1	100	0	0	0	0	0	0	0	0	0	0	0	0;
];

%% branch data
%	fbus	tbus	r	x	b	rateA	rateB	rateC	ratio	angle	status	angmin	angmax
mpc.branch = [
	1	2	0.00371058946	0.00263020986	0	0	0	0	0	0	1	-360	360;
	2	3	0.0110931834	0.00786490625	0	0	0	0	0	0	1	-360	360;
	3	4	5.78774785e-05	3.85849857e-05	0	0	0	0	0	0	1	-360	360;
	4	5	0.000591636447	0.000418004012	0	0	0	0	0	0	1	-360	360;
	5	6	0.000437296504	0.000315110716	0	0	0	0	0	0	1	-360	360;
	6	7	0.00301605971	0.00401926934	0	0	0	0	0	0	1	-360	360;
	7	8	0.00473309158	0.00630864516	0	0	0	0	0	0	1	-360	360;
	8	9	0.00417360928	0.0029517514	0	0	0	0	0	0	1	-360	360;
	9	10	0.00326043129	0.00230866831	0	0	0	0	0	0	1	-360	360;
	10	11	0.00074597639	0.000527328138	0	0	0	0	0	0	1	-360	360;
	11	12	0.00830220275	0.00587134865	0	0	0	0	0	0	1	-360	360;
	12	13	0.00789062957	0.0055690996	0	0	0	0	0	0	1	-360	360;
	13	14	0.0031382455	0.00221863668	0	0	0	0	0	0	1	-360	360;
	14	15	0.00615430522	0.00435367255	0	0	0	0	0	0	1	-360	360;
	15	16	0.00553051461	0.00391637605	0	0	0	0	0	0	1	-360	360;
	16	17	0.00255947072	0.00181349433	0	0	0	0	0	0	1	-360	360;
	17	18	0.00532472802	0.00363985032	0	0	0	0	0	0	1	-360	360;
	18	19	0.00119613456	0.000848869685	0	0	0	0	0	0	1	-360	360;
	19	20	0.0035948345	0.00254017822	0	0	0	0	0	0	1	-360	360;
	20	21	0.0023472533	0.00158198441	0	0	0	0	0	0	1	-360	360;
	21	22	0.00368486613	0.0019742651	0	0	0	0	0	0	1	-360	360;
	22	23	0.00169130854	0.00122828871	0	0	0	0	0	0	1	-360	360;
	23	24	0.00439225754	0.00319612298	0	0	0	0	0	0	1	-360	360;
	24	25	0.00255947072	0.00181349433	0	0	0	0	0	0	1	-360	360;
	25	26	0.00468807576	0.0034083404	0	0	0	0	0	0	1	-360	360;
	26	27	0.00215432837	0.00156912275	0	0	0	0	0	0	1	-360	360;
	27	28	0.00375560527	0.00266236401	0	0	0	0	0	0	1	-360	360;
	28	29	0.00421219427	0.00297747473	0	0	0	0	0	0	1	-360	360;
	61	62	0.00264307152	0.00187137181	0	0	0	0	0	0	1	-360	360;
	60	63	0.00227008332	0.00160770774	0	0	0	0	0	0	1	-360	360;
	63	64	0.00673308	0.00476524573	0	0	0	0	0	0	1	-360	360;
	64	65	0.00433438006	0.00306750636	0	0	0	0	0	0	1	-360	360;
	65	66	0.00194211095	0.00137619782	0	0	0	0	0	0	1	-360	360;
	66	67	0.00293245891	0.0020771584	0	0	0	0	0	0	1	-360	360;
	67	68	0.00140192115	0.000990347966	0	0	0	0	0	0	1	-360	360;
	70	72	0.00450158166	0.00318326132	0	0	0	0	0	0	1	-360	360;
	42	73	0.00148552195	0.00105465628	0	0	0	0	0	0	1	-360	360;
	73	74	0.000192924928	0.000411573181	0	0	0	0	0	0	1	-360	360;
	43	75	0.00243728493	0.00172346269	0	0	0	0	0	0	1	-360	360;
	44	76	0.00354981868	0.0025144549	0	0	0	0	0	0	1	-360	360;
	46	77	0.00331830877	0.00280384229	0	0	0	0	0	0	1	-360	360;
	76	78	0.00107394877	0.000707391404	0	0	0	0	0	0	1	-360	360;
	78	79	0.00266879484	0.000649513926	0	0	0	0	0	0	1	-360	360;
	79	80	0.00645012344	0.00156912275	0	0	0	0	0	0	1	-360	360;
	79	81	0.00972984722	0.00237940745	0	0	0	0	0	0	1	-360	360;
	81	82	0.000212217421	5.14466476e-05	0	0	0	0	0	0	1	-360	360;
	47	83	0.00054662063	0.000398711519	0	0	0	0	0	0	1	-360	360;
	49	84	0.0033247396	0.0028874431	0	0	0	0	0	0	1	-360	360;
	50	85	0.000945332149	0.000231509914	0	0	0	0	0	0	1	-360	360;
	85	86	0.000237940745	0.000102893295	0	0	0	0	0	0	1	-360	360;
	86	87	0	6.43083095e-07	0	0	0	0	0	0	1	-360	360;
	7	88	0.00111896458	0.00148552195	0	0	0	0	0	0	1	-360	360;
	88	89	0.00301605971	0.00401926934	0	0	0	0	0	0	1	-360	360;
	89	90	0.00192281845	0.00255947072	0	0	0	0	0	0	1	-360	360;
	90	91	0.00136333616	0.00181992516	0	0	0	0	0	0	1	-360	360;
	91	92	0.00202571175	0.002700949	0	0	0	0	0	0	1	-360	360;
	92	93	0.00180063267	0.00239869994	0	0	0	0	0	0	1	-360	360;
	93	94	0.00132475118	0.00176204768	0	0	0	0	0	0	1	-360	360;
	94	95	0.00132475118	0.00176204768	0	0	0	0	0	0	1	-360	360;
	89	96	0.00441798086	0.00312538384	0	0	0	0	0	0	1	-360	360;
	96	97	0.00623790602	0.00441155003	0	0	0	0	0	0	1	-360	360;
	97	98	0.00580060951	0.00126044287	0	0	0	0	0	0	1	-360	360;
	97	99	0.000212217421	5.14466476e-05	0	0	0	0	0	0	1	-360	360;
	131	132	0.00223149834	0.00157555358	0	0	0	0	0	0	1	-360	360;
	131	133	0.00591636447	0.0043022259	0	0	0	0	0	0	1	-360	360;
	121	134	0.00540832883	0.00393566854	0	0	0	0	0	0	1	-360	360;
	16	135	0.00338904791	0.00239869994	0	0	0	0	0	0	1	-360	360;
	16	136	0.00194211095	0.00137619782	0	0	0	0	0	0	1	-360	360;
	18	137	0.00375560527	0.00266236401	0	0	0	0	0	0	1	-360	360;
	23	138	0.004945309	0.0035948345	0	0	0	0	0	0	1	-360	360;
	29	30	0.00219934418	0.00159484607	0	0	0	0	0	0	1	-360	360;
	30	31	0.000823146361	0.000585205616	0	0	0	0	0	0	1	-360	360;
	31	32	0.00223149834	0.00157555358	0	0	0	0	0	0	1	-360	360;
	2	33	0.00284885811	0.00201928092	0	0	0	0	0	0	1	-360	360;
	33	34	0.000128616619	5.78774785e-05	0	0	0	0	0	0	1	-360	360;
	5	35	0.0146237096	0.00356268034	0	0	0	0	0	0	1	-360	360;
	5	36	0.00813500115	0.0100642504	0	0	0	0	0	0	1	-360	360;
	6	37	0.000353695702	0.000469450659	0	0	0	0	0	0	1	-360	360;
	37	38	0.0130931718	0.00926039656	0	0	0	0	0	0	1	-360	360;
	38	39	0.00603211943	0.00426364092	0	0	0	0	0	0	1	-360	360;
	39	40	0.00223149834	0.00157555358	0	0	0	0	0	0	1	-360	360;
	40	41	0.00590350281	0.00418004012	0	0	0	0	0	0	1	-360	360;
	41	42	0.0149066661	0.0105465628	0	0	0	0	0	0	1	-360	360;
	42	43	0.00776201295	0.00549192963	0	0	0	0	0	0	1	-360	360;
	43	44	0.00284885811	0.00201928092	0	0	0	0	0	0	1	-360	360;
	44	45	0.00260448653	0.00185207931	0	0	0	0	0	0	1	-360	360;
	45	46	0.00102893295	0.00081671553	0	0	0	0	0	0	1	-360	360;
	46	47	0.00409000848	0.00289387393	0	0	0	0	0	0	1	-360	360;
	47	48	0.0026816565	0.00189709513	0	0	0	0	0	0	1	-360	360;
	48	49	0.00470736825	0.00327972378	0	0	0	0	0	0	1	-360	360;
	49	50	0.00532472802	0.00357554201	0	0	0	0	0	0	1	-360	360;
	50	51	0.00255947072	0.00181349433	0	0	0	0	0	0	1	-360	360;
	51	52	0.00144693696	0.00102250212	0	0	0	0	0	0	1	-360	360;
	38	53	0.00540832883	0.00382634441	0	0	0	0	0	0	1	-360	360;
	42	54	0.00103536378	0.000733114728	0	0	0	0	0	0	1	-360	360;
	54	55	0.00338904791	0.00239869994	0	0	0	0	0	0	1	-360	360;
	55	56	0.00574273204	0.00406428516	0	0	0	0	0	0	1	-360	360;
	56	57	0.00557553043	0.00394209937	0	0	0	0	0	0	1	-360	360;
	57	58	0.00433438006	0.00306750636	0	0	0	0	0	0	1	-360	360;
	58	59	0.00301605971	0.00213503587	0	0	0	0	0	0	1	-360	360;
	55	60	0.00214789754	0.0015176761	0	0	0	0	0	0	1	-360	360;
	60	61	0.00210288172	0.00149195278	0	0	0	0	0	0	1	-360	360;
	63	69	0.00235368413	0.00166558522	0	0	0	0	0	0	1	-360	360;
	55	70	0.00148552195	0.00105465628	0	0	0	0	0	0	1	-360	360;
	70	71	0.000771699714	0.000186494097	0	0	0	0	0	0	1	-360	360;
	99	100	0.000212217421	5.14466476e-05	0	0	0	0	0	0	1	-360	360;
	91	101	0.00148552195	0.00105465628	0	0	0	0	0	0	1	-360	360;
	101	102	0.00371702029	0.00263020986	0	0	0	0	0	0	1	-360	360;
	102	103	0.00571700871	0.00139549032	0	0	0	0	0	0	1	-360	360;
	103	104	0.00404499267	0.000983917135	0	0	0	0	0	0	1	-360	360;
	104	105	0.00752407221	0.00183278682	0	0	0	0	0	0	1	-360	360;
	104	106	0.000733114728	0.000167201605	0	0	0	0	0	0	1	-360	360;
	92	107	0.00545977547	0.00133118201	0	0	0	0	0	0	1	-360	360;
	94	108	0.00393566854	0.00167201605	0	0	0	0	0	0	1	-360	360;
	108	109	0.00290673559	0.00123471954	0	0	0	0	0	0	1	-360	360;
	94	110	0.000212217421	5.14466476e-05	0	0	0	0	0	0	1	-360	360;
	7	111	0.00462376745	0.00327329295	0	0	0	0	0	0	1	-360	360;
	10	112	0.00688098911	0.00167844688	0	0	0	0	0	0	1	-360	360;
	11	113	0.00223149834	0.00157555358	0	0	0	0	0	0	1	-360	360;
	13	114	0.00400640768	0.00283599645	0	0	0	0	0	0	1	-360	360;
	114	115	0.00429579507	0.00304178304	0	0	0	0	0	0	1	-360	360;
	115	116	0.000257233238	6.43083095e-05	0	0	0	0	0	0	1	-360	360;
	14	117	0.00325400046	0.00235368413	0	0	0	0	0	0	1	-360	360;
	15	118	0.00103536378	0.000733114728	0	0	0	0	0	0	1	-360	360;
	118	119	0.0029710439	0.00210288172	0	0	0	0	0	0	1	-360	360;
	119	120	0.00272667232	0.00192924928	0	0	0	0	0	0	1	-360	360;
	120	121	0.00326043129	0.00230866831	0	0	0	0	0	0	1	-360	360;
	121	122	0.00470736825	0.00333117043	0	0	0	0	0	0	1	-360	360;
	122	123	0.00375560527	0.00266236401	0	0	0	0	0	0	1	-360	360;
	123	124	0.00392280688	0.00277811897	0	0	0	0	0	0	1	-360	360;
	124	125	0.00503534063	0.00356268034	0	0	0	0	0	0	1	-360	360;
	125	126	0.00536331301	0.00390351438	0	0	0	0	0	0	1	-360	360;
	126	127	0.00223149834	0.00157555358	0	0	0	0	0	0	1	-360	360;
	127	128	0.00366557364	0.002700949	0	0	0	0	0	0	1	-360	360;
	128	129	0.0037620361	0.00273310315	0	0	0	0	0	0	1	-360	360;
	129	130	0.000662375588	0.000469450659	0	0	0	0	0	0	1	-360	360;
	119	131	0.00228294499	0.00162700023	0	0	0	0	0	0	1	-360	360;
	25	139	0.0061092894	0.00432794923	0	0	0	0	0	0	1	-360	360;
	30	140	0.00333760126	0.00242442327	0	0	0	0	0	0	1	-360	360;
	31	141	0.00375560527	0.00266236401	0	0	0	0	0	0	1	-360	360;
];

%%-----  OPF Data  -----%%
%% generator cost data
%	1	startup	shutdown	n	x1	y1	...	xn	yn
%	2	startup	shutdown	n	c(n-1)	...	c0
mpc.gencost = [
	2	0	0	3	0	20	0;
];
